* BAS21VM D model
* Model Generated by ROHM
* All Rights Reserved
* Commercial Use or 
* Resale Restricted
* Date: 2017/04/11
.MODEL BAS21VM D
+ IS=83.537E-12
+ N=1.2908
+ RS=.56205
+ IKF=860.47E-6
+ EG=0.9100
+ CJO=2.4943E-12
+ M=.2624
+ VJ=.5035
+ ISR=259.80E-12
+ NR=3.8000
+ BV=250.00
+ TT=28.590E-9
+ TRS1=-1.5000E-3
+ TIKF=0.0120
